*2N2907A
*Si  1.8W  60V 600mA 200MHz pkg:TO-18 3,2,1
.MODEL 2N2907A PNP(IS=3.81E-13 BF=154 VAF=139 IKF=0.14 ISE=1.53E-11 
+ NE=2 BR=4 VAR=20 IKR=0.21 RB=2.21 RE=0.552 RC=0.221 CJE=1.56E-11 VJE=0.75 
+ TF=6.36E-10 CJC=2.08E-11 VJC=0.75 TR=6.37E-8 VJS=0.75 XTB=1.5 )